/*--------------------------------*- C++ -*----------------------------------*\
| =========                 |                                                 |
| \\      /  F ield         | OpenFOAM: The Open Source CFD Toolbox           |
|  \\    /   O peration     | Version:  2412                                  |
|   \\  /    A nd           | Website:  www.openfoam.com                      |
|    \\/     M anipulation  |                                                 |
\*---------------------------------------------------------------------------*/
FoamFile
{
    version     2.0;
    format      ascii;
    arch        "LSB;label=32;scalar=64";
    class       dictionary;
    location    "0.000892992/uniform/functionObjects";
    object      functionObjectProperties;
}
// * * * * * * * * * * * * * * * * * * * * * * * * * * * * * * * * * * * * * //

fieldAverage1
{
    U.air
    {
        totalIter       5;
        totalTime       0.000892992;
    }
    U.water
    {
        totalIter       5;
        totalTime       0.000892992;
    }
    alpha.air
    {
        totalIter       5;
        totalTime       0.000892992;
    }
    p
    {
        totalIter       5;
        totalTime       0.000892992;
    }
}


// ************************************************************************* //
